* NGSPICE file created from test_col_inv_array.ext - technology: sky130A

.subckt ptx__nmos_svt_1400_150_1__pmos_svt_2600_150_1 w_348_n36# a_0_83# a_384_0#
+ a_384_83# SUB a_0_0# a_n38_53#
X0 a_384_83# a_n38_53# a_384_0# w_348_n36# sky130_fd_pr__pfet_01v8 ad=0.689 pd=5.73 as=0.689 ps=5.73 w=2.6 l=0.15
X1 a_0_83# a_n38_53# a_0_0# SUB sky130_fd_pr__nfet_01v8 ad=0.371 pd=3.33 as=0.371 ps=3.33 w=1.4 l=0.15
.ends

.subckt test_col_inv_array_cell_inv li_5_94# ptx__nmos_svt_1400_150_1__pmos_svt_2600_150_1_0/a_384_0#
+ SUB ptx__nmos_svt_1400_150_1__pmos_svt_2600_150_1_0/a_n38_53# ptx__nmos_svt_1400_150_1__pmos_svt_2600_150_1_0/a_0_0#
+ ptx__nmos_svt_1400_150_1__pmos_svt_2600_150_1_0/w_348_n36#
Xptx__nmos_svt_1400_150_1__pmos_svt_2600_150_1_0 ptx__nmos_svt_1400_150_1__pmos_svt_2600_150_1_0/w_348_n36#
+ li_5_94# ptx__nmos_svt_1400_150_1__pmos_svt_2600_150_1_0/a_384_0# li_5_94# SUB ptx__nmos_svt_1400_150_1__pmos_svt_2600_150_1_0/a_0_0#
+ ptx__nmos_svt_1400_150_1__pmos_svt_2600_150_1_0/a_n38_53# ptx__nmos_svt_1400_150_1__pmos_svt_2600_150_1
.ends

.subckt test_col_inv_array_cell test_col_inv_array_cell_inv_0/ptx__nmos_svt_1400_150_1__pmos_svt_2600_150_1_0/a_n38_53#
+ test_col_inv_array_cell_inv_0/ptx__nmos_svt_1400_150_1__pmos_svt_2600_150_1_0/a_0_0#
+ test_col_inv_array_cell_inv_0/ptx__nmos_svt_1400_150_1__pmos_svt_2600_150_1_0/w_348_n36#
+ SUB test_col_inv_array_cell_inv_0/ptx__nmos_svt_1400_150_1__pmos_svt_2600_150_1_0/a_384_0#
+ test_col_inv_array_cell_inv_0/li_5_94#
Xtest_col_inv_array_cell_inv_0 test_col_inv_array_cell_inv_0/li_5_94# test_col_inv_array_cell_inv_0/ptx__nmos_svt_1400_150_1__pmos_svt_2600_150_1_0/a_384_0#
+ SUB test_col_inv_array_cell_inv_0/ptx__nmos_svt_1400_150_1__pmos_svt_2600_150_1_0/a_n38_53#
+ test_col_inv_array_cell_inv_0/ptx__nmos_svt_1400_150_1__pmos_svt_2600_150_1_0/a_0_0#
+ test_col_inv_array_cell_inv_0/ptx__nmos_svt_1400_150_1__pmos_svt_2600_150_1_0/w_348_n36#
+ test_col_inv_array_cell_inv
.ends

.subckt test_col_inv_array_array_inst test_col_inv_array_cell_29/test_col_inv_array_cell_inv_0/ptx__nmos_svt_1400_150_1__pmos_svt_2600_150_1_0/a_0_0#
+ test_col_inv_array_cell_19/test_col_inv_array_cell_inv_0/ptx__nmos_svt_1400_150_1__pmos_svt_2600_150_1_0/a_384_0#
+ test_col_inv_array_cell_10/test_col_inv_array_cell_inv_0/ptx__nmos_svt_1400_150_1__pmos_svt_2600_150_1_0/a_n38_53#
+ test_col_inv_array_cell_1/test_col_inv_array_cell_inv_0/ptx__nmos_svt_1400_150_1__pmos_svt_2600_150_1_0/a_0_0#
+ test_col_inv_array_cell_19/test_col_inv_array_cell_inv_0/ptx__nmos_svt_1400_150_1__pmos_svt_2600_150_1_0/w_348_n36#
+ test_col_inv_array_cell_10/test_col_inv_array_cell_inv_0/li_5_94# test_col_inv_array_cell_11/test_col_inv_array_cell_inv_0/ptx__nmos_svt_1400_150_1__pmos_svt_2600_150_1_0/a_0_0#
+ test_col_inv_array_cell_24/test_col_inv_array_cell_inv_0/ptx__nmos_svt_1400_150_1__pmos_svt_2600_150_1_0/a_384_0#
+ test_col_inv_array_cell_28/test_col_inv_array_cell_inv_0/li_5_94# test_col_inv_array_cell_4/test_col_inv_array_cell_inv_0/ptx__nmos_svt_1400_150_1__pmos_svt_2600_150_1_0/a_384_0#
+ test_col_inv_array_cell_2/test_col_inv_array_cell_inv_0/ptx__nmos_svt_1400_150_1__pmos_svt_2600_150_1_0/w_348_n36#
+ test_col_inv_array_cell_8/test_col_inv_array_cell_inv_0/ptx__nmos_svt_1400_150_1__pmos_svt_2600_150_1_0/a_n38_53#
+ test_col_inv_array_cell_23/test_col_inv_array_cell_inv_0/ptx__nmos_svt_1400_150_1__pmos_svt_2600_150_1_0/a_0_0#
+ test_col_inv_array_cell_25/test_col_inv_array_cell_inv_0/ptx__nmos_svt_1400_150_1__pmos_svt_2600_150_1_0/a_n38_53#
+ test_col_inv_array_cell_1/test_col_inv_array_cell_inv_0/li_5_94# test_col_inv_array_cell_5/test_col_inv_array_cell_inv_0/ptx__nmos_svt_1400_150_1__pmos_svt_2600_150_1_0/w_348_n36#
+ test_col_inv_array_cell_9/test_col_inv_array_cell_inv_0/ptx__nmos_svt_1400_150_1__pmos_svt_2600_150_1_0/a_384_0#
+ test_col_inv_array_cell_29/test_col_inv_array_cell_inv_0/ptx__nmos_svt_1400_150_1__pmos_svt_2600_150_1_0/a_384_0#
+ test_col_inv_array_cell_15/test_col_inv_array_cell_inv_0/ptx__nmos_svt_1400_150_1__pmos_svt_2600_150_1_0/a_n38_53#
+ test_col_inv_array_cell_29/test_col_inv_array_cell_inv_0/li_5_94# test_col_inv_array_cell_11/test_col_inv_array_cell_inv_0/li_5_94#
+ test_col_inv_array_cell_11/test_col_inv_array_cell_inv_0/ptx__nmos_svt_1400_150_1__pmos_svt_2600_150_1_0/a_384_0#
+ test_col_inv_array_cell_22/test_col_inv_array_cell_inv_0/ptx__nmos_svt_1400_150_1__pmos_svt_2600_150_1_0/w_348_n36#
+ test_col_inv_array_cell_2/test_col_inv_array_cell_inv_0/ptx__nmos_svt_1400_150_1__pmos_svt_2600_150_1_0/a_n38_53#
+ test_col_inv_array_cell_6/test_col_inv_array_cell_inv_0/ptx__nmos_svt_1400_150_1__pmos_svt_2600_150_1_0/a_0_0#
+ test_col_inv_array_cell_2/test_col_inv_array_cell_inv_0/li_5_94# test_col_inv_array_cell_16/test_col_inv_array_cell_inv_0/ptx__nmos_svt_1400_150_1__pmos_svt_2600_150_1_0/a_0_0#
+ test_col_inv_array_cell_8/test_col_inv_array_cell_inv_0/ptx__nmos_svt_1400_150_1__pmos_svt_2600_150_1_0/w_348_n36#
+ test_col_inv_array_cell_28/test_col_inv_array_cell_inv_0/ptx__nmos_svt_1400_150_1__pmos_svt_2600_150_1_0/a_0_0#
+ test_col_inv_array_cell_25/test_col_inv_array_cell_inv_0/ptx__nmos_svt_1400_150_1__pmos_svt_2600_150_1_0/w_348_n36#
+ test_col_inv_array_cell_16/test_col_inv_array_cell_inv_0/ptx__nmos_svt_1400_150_1__pmos_svt_2600_150_1_0/a_384_0#
+ test_col_inv_array_cell_12/test_col_inv_array_cell_inv_0/li_5_94# test_col_inv_array_cell_1/test_col_inv_array_cell_inv_0/ptx__nmos_svt_1400_150_1__pmos_svt_2600_150_1_0/a_384_0#
+ test_col_inv_array_cell_21/test_col_inv_array_cell_inv_0/ptx__nmos_svt_1400_150_1__pmos_svt_2600_150_1_0/a_384_0#
+ test_col_inv_array_cell_0/test_col_inv_array_cell_inv_0/ptx__nmos_svt_1400_150_1__pmos_svt_2600_150_1_0/a_0_0#
+ test_col_inv_array_cell_11/test_col_inv_array_cell_inv_0/ptx__nmos_svt_1400_150_1__pmos_svt_2600_150_1_0/w_348_n36#
+ test_col_inv_array_cell_10/test_col_inv_array_cell_inv_0/ptx__nmos_svt_1400_150_1__pmos_svt_2600_150_1_0/a_0_0#
+ test_col_inv_array_cell_7/test_col_inv_array_cell_inv_0/ptx__nmos_svt_1400_150_1__pmos_svt_2600_150_1_0/a_n38_53#
+ test_col_inv_array_cell_3/test_col_inv_array_cell_inv_0/li_5_94# test_col_inv_array_cell_22/test_col_inv_array_cell_inv_0/ptx__nmos_svt_1400_150_1__pmos_svt_2600_150_1_0/a_0_0#
+ test_col_inv_array_cell_28/test_col_inv_array_cell_inv_0/ptx__nmos_svt_1400_150_1__pmos_svt_2600_150_1_0/w_348_n36#
+ test_col_inv_array_cell_24/test_col_inv_array_cell_inv_0/ptx__nmos_svt_1400_150_1__pmos_svt_2600_150_1_0/a_n38_53#
+ test_col_inv_array_cell_26/test_col_inv_array_cell_inv_0/ptx__nmos_svt_1400_150_1__pmos_svt_2600_150_1_0/a_384_0#
+ test_col_inv_array_cell_14/test_col_inv_array_cell_inv_0/ptx__nmos_svt_1400_150_1__pmos_svt_2600_150_1_0/w_348_n36#
+ test_col_inv_array_cell_6/test_col_inv_array_cell_inv_0/ptx__nmos_svt_1400_150_1__pmos_svt_2600_150_1_0/a_384_0#
+ test_col_inv_array_cell_31/test_col_inv_array_cell_inv_0/ptx__nmos_svt_1400_150_1__pmos_svt_2600_150_1_0/a_384_0#
+ test_col_inv_array_cell_13/test_col_inv_array_cell_inv_0/li_5_94# test_col_inv_array_cell_14/test_col_inv_array_cell_inv_0/ptx__nmos_svt_1400_150_1__pmos_svt_2600_150_1_0/a_n38_53#
+ test_col_inv_array_cell_4/test_col_inv_array_cell_inv_0/li_5_94# test_col_inv_array_cell_5/test_col_inv_array_cell_inv_0/ptx__nmos_svt_1400_150_1__pmos_svt_2600_150_1_0/a_0_0#
+ test_col_inv_array_cell_1/test_col_inv_array_cell_inv_0/ptx__nmos_svt_1400_150_1__pmos_svt_2600_150_1_0/a_n38_53#
+ test_col_inv_array_cell_17/test_col_inv_array_cell_inv_0/ptx__nmos_svt_1400_150_1__pmos_svt_2600_150_1_0/w_348_n36#
+ test_col_inv_array_cell_0/test_col_inv_array_cell_inv_0/ptx__nmos_svt_1400_150_1__pmos_svt_2600_150_1_0/w_348_n36#
+ test_col_inv_array_cell_15/test_col_inv_array_cell_inv_0/ptx__nmos_svt_1400_150_1__pmos_svt_2600_150_1_0/a_0_0#
+ test_col_inv_array_cell_31/test_col_inv_array_cell_inv_0/ptx__nmos_svt_1400_150_1__pmos_svt_2600_150_1_0/w_348_n36#
+ test_col_inv_array_cell_29/test_col_inv_array_cell_inv_0/ptx__nmos_svt_1400_150_1__pmos_svt_2600_150_1_0/a_n38_53#
+ test_col_inv_array_cell_13/test_col_inv_array_cell_inv_0/ptx__nmos_svt_1400_150_1__pmos_svt_2600_150_1_0/a_384_0#
+ test_col_inv_array_cell_27/test_col_inv_array_cell_inv_0/ptx__nmos_svt_1400_150_1__pmos_svt_2600_150_1_0/a_0_0#
+ test_col_inv_array_cell_14/test_col_inv_array_cell_inv_0/li_5_94# test_col_inv_array_cell_19/test_col_inv_array_cell_inv_0/ptx__nmos_svt_1400_150_1__pmos_svt_2600_150_1_0/a_n38_53#
+ test_col_inv_array_cell_5/test_col_inv_array_cell_inv_0/li_5_94# test_col_inv_array_cell_20/test_col_inv_array_cell_inv_0/li_5_94#
+ test_col_inv_array_cell_3/test_col_inv_array_cell_inv_0/ptx__nmos_svt_1400_150_1__pmos_svt_2600_150_1_0/w_348_n36#
+ test_col_inv_array_cell_18/test_col_inv_array_cell_inv_0/ptx__nmos_svt_1400_150_1__pmos_svt_2600_150_1_0/a_384_0#
+ test_col_inv_array_cell_6/test_col_inv_array_cell_inv_0/ptx__nmos_svt_1400_150_1__pmos_svt_2600_150_1_0/a_n38_53#
+ test_col_inv_array_cell_21/test_col_inv_array_cell_inv_0/ptx__nmos_svt_1400_150_1__pmos_svt_2600_150_1_0/a_0_0#
+ test_col_inv_array_cell_20/test_col_inv_array_cell_inv_0/ptx__nmos_svt_1400_150_1__pmos_svt_2600_150_1_0/w_348_n36#
+ test_col_inv_array_cell_3/test_col_inv_array_cell_inv_0/ptx__nmos_svt_1400_150_1__pmos_svt_2600_150_1_0/a_384_0#
+ test_col_inv_array_cell_23/test_col_inv_array_cell_inv_0/ptx__nmos_svt_1400_150_1__pmos_svt_2600_150_1_0/a_384_0#
+ test_col_inv_array_cell_23/test_col_inv_array_cell_inv_0/ptx__nmos_svt_1400_150_1__pmos_svt_2600_150_1_0/a_n38_53#
+ test_col_inv_array_cell_15/test_col_inv_array_cell_inv_0/li_5_94# test_col_inv_array_cell_6/test_col_inv_array_cell_inv_0/ptx__nmos_svt_1400_150_1__pmos_svt_2600_150_1_0/w_348_n36#
+ test_col_inv_array_cell_21/test_col_inv_array_cell_inv_0/li_5_94# test_col_inv_array_cell_13/test_col_inv_array_cell_inv_0/ptx__nmos_svt_1400_150_1__pmos_svt_2600_150_1_0/a_n38_53#
+ test_col_inv_array_cell_23/test_col_inv_array_cell_inv_0/ptx__nmos_svt_1400_150_1__pmos_svt_2600_150_1_0/w_348_n36#
+ test_col_inv_array_cell_6/test_col_inv_array_cell_inv_0/li_5_94# test_col_inv_array_cell_28/test_col_inv_array_cell_inv_0/ptx__nmos_svt_1400_150_1__pmos_svt_2600_150_1_0/a_384_0#
+ test_col_inv_array_cell_8/test_col_inv_array_cell_inv_0/ptx__nmos_svt_1400_150_1__pmos_svt_2600_150_1_0/a_384_0#
+ test_col_inv_array_cell_4/test_col_inv_array_cell_inv_0/ptx__nmos_svt_1400_150_1__pmos_svt_2600_150_1_0/a_0_0#
+ test_col_inv_array_cell_14/test_col_inv_array_cell_inv_0/ptx__nmos_svt_1400_150_1__pmos_svt_2600_150_1_0/a_0_0#
+ test_col_inv_array_cell_0/test_col_inv_array_cell_inv_0/ptx__nmos_svt_1400_150_1__pmos_svt_2600_150_1_0/a_n38_53#
+ test_col_inv_array_cell_10/test_col_inv_array_cell_inv_0/ptx__nmos_svt_1400_150_1__pmos_svt_2600_150_1_0/a_384_0#
+ test_col_inv_array_cell_9/test_col_inv_array_cell_inv_0/ptx__nmos_svt_1400_150_1__pmos_svt_2600_150_1_0/w_348_n36#
+ test_col_inv_array_cell_16/test_col_inv_array_cell_inv_0/li_5_94# test_col_inv_array_cell_28/test_col_inv_array_cell_inv_0/ptx__nmos_svt_1400_150_1__pmos_svt_2600_150_1_0/a_n38_53#
+ test_col_inv_array_cell_26/test_col_inv_array_cell_inv_0/ptx__nmos_svt_1400_150_1__pmos_svt_2600_150_1_0/a_0_0#
+ test_col_inv_array_cell_26/test_col_inv_array_cell_inv_0/ptx__nmos_svt_1400_150_1__pmos_svt_2600_150_1_0/w_348_n36#
+ test_col_inv_array_cell_22/test_col_inv_array_cell_inv_0/li_5_94# test_col_inv_array_cell_7/test_col_inv_array_cell_inv_0/li_5_94#
+ test_col_inv_array_cell_18/test_col_inv_array_cell_inv_0/ptx__nmos_svt_1400_150_1__pmos_svt_2600_150_1_0/a_n38_53#
+ test_col_inv_array_cell_12/test_col_inv_array_cell_inv_0/ptx__nmos_svt_1400_150_1__pmos_svt_2600_150_1_0/w_348_n36#
+ test_col_inv_array_cell_15/test_col_inv_array_cell_inv_0/ptx__nmos_svt_1400_150_1__pmos_svt_2600_150_1_0/a_384_0#
+ test_col_inv_array_cell_20/test_col_inv_array_cell_inv_0/ptx__nmos_svt_1400_150_1__pmos_svt_2600_150_1_0/a_384_0#
+ test_col_inv_array_cell_0/test_col_inv_array_cell_inv_0/ptx__nmos_svt_1400_150_1__pmos_svt_2600_150_1_0/a_384_0#
+ test_col_inv_array_cell_29/test_col_inv_array_cell_inv_0/ptx__nmos_svt_1400_150_1__pmos_svt_2600_150_1_0/w_348_n36#
+ test_col_inv_array_cell_5/test_col_inv_array_cell_inv_0/ptx__nmos_svt_1400_150_1__pmos_svt_2600_150_1_0/a_n38_53#
+ test_col_inv_array_cell_20/test_col_inv_array_cell_inv_0/ptx__nmos_svt_1400_150_1__pmos_svt_2600_150_1_0/a_0_0#
+ test_col_inv_array_cell_17/test_col_inv_array_cell_inv_0/li_5_94# test_col_inv_array_cell_9/test_col_inv_array_cell_inv_0/ptx__nmos_svt_1400_150_1__pmos_svt_2600_150_1_0/a_0_0#
+ test_col_inv_array_cell_15/test_col_inv_array_cell_inv_0/ptx__nmos_svt_1400_150_1__pmos_svt_2600_150_1_0/w_348_n36#
+ test_col_inv_array_cell_19/test_col_inv_array_cell_inv_0/ptx__nmos_svt_1400_150_1__pmos_svt_2600_150_1_0/a_0_0#
+ test_col_inv_array_cell_22/test_col_inv_array_cell_inv_0/ptx__nmos_svt_1400_150_1__pmos_svt_2600_150_1_0/a_n38_53#
+ test_col_inv_array_cell_23/test_col_inv_array_cell_inv_0/li_5_94# test_col_inv_array_cell_8/test_col_inv_array_cell_inv_0/li_5_94#
+ test_col_inv_array_cell_5/test_col_inv_array_cell_inv_0/ptx__nmos_svt_1400_150_1__pmos_svt_2600_150_1_0/a_384_0#
+ test_col_inv_array_cell_25/test_col_inv_array_cell_inv_0/ptx__nmos_svt_1400_150_1__pmos_svt_2600_150_1_0/a_384_0#
+ test_col_inv_array_cell_12/test_col_inv_array_cell_inv_0/ptx__nmos_svt_1400_150_1__pmos_svt_2600_150_1_0/a_n38_53#
+ test_col_inv_array_cell_30/test_col_inv_array_cell_inv_0/ptx__nmos_svt_1400_150_1__pmos_svt_2600_150_1_0/a_384_0#
+ test_col_inv_array_cell_3/test_col_inv_array_cell_inv_0/ptx__nmos_svt_1400_150_1__pmos_svt_2600_150_1_0/a_0_0#
+ test_col_inv_array_cell_18/test_col_inv_array_cell_inv_0/ptx__nmos_svt_1400_150_1__pmos_svt_2600_150_1_0/w_348_n36#
+ test_col_inv_array_cell_13/test_col_inv_array_cell_inv_0/ptx__nmos_svt_1400_150_1__pmos_svt_2600_150_1_0/a_0_0#
+ test_col_inv_array_cell_18/test_col_inv_array_cell_inv_0/li_5_94# SUB test_col_inv_array_cell_1/test_col_inv_array_cell_inv_0/ptx__nmos_svt_1400_150_1__pmos_svt_2600_150_1_0/w_348_n36#
+ test_col_inv_array_cell_25/test_col_inv_array_cell_inv_0/ptx__nmos_svt_1400_150_1__pmos_svt_2600_150_1_0/a_0_0#
+ test_col_inv_array_cell_24/test_col_inv_array_cell_inv_0/li_5_94# test_col_inv_array_cell_27/test_col_inv_array_cell_inv_0/ptx__nmos_svt_1400_150_1__pmos_svt_2600_150_1_0/a_n38_53#
+ test_col_inv_array_cell_9/test_col_inv_array_cell_inv_0/li_5_94# test_col_inv_array_cell_12/test_col_inv_array_cell_inv_0/ptx__nmos_svt_1400_150_1__pmos_svt_2600_150_1_0/a_384_0#
+ test_col_inv_array_cell_17/test_col_inv_array_cell_inv_0/ptx__nmos_svt_1400_150_1__pmos_svt_2600_150_1_0/a_n38_53#
+ test_col_inv_array_cell_30/test_col_inv_array_cell_inv_0/li_5_94# test_col_inv_array_cell_4/test_col_inv_array_cell_inv_0/ptx__nmos_svt_1400_150_1__pmos_svt_2600_150_1_0/w_348_n36#
+ test_col_inv_array_cell_19/test_col_inv_array_cell_inv_0/li_5_94# test_col_inv_array_cell_21/test_col_inv_array_cell_inv_0/ptx__nmos_svt_1400_150_1__pmos_svt_2600_150_1_0/w_348_n36#
+ test_col_inv_array_cell_4/test_col_inv_array_cell_inv_0/ptx__nmos_svt_1400_150_1__pmos_svt_2600_150_1_0/a_n38_53#
+ test_col_inv_array_cell_31/test_col_inv_array_cell_inv_0/ptx__nmos_svt_1400_150_1__pmos_svt_2600_150_1_0/a_n38_53#
+ test_col_inv_array_cell_8/test_col_inv_array_cell_inv_0/ptx__nmos_svt_1400_150_1__pmos_svt_2600_150_1_0/a_0_0#
+ test_col_inv_array_cell_17/test_col_inv_array_cell_inv_0/ptx__nmos_svt_1400_150_1__pmos_svt_2600_150_1_0/a_384_0#
+ test_col_inv_array_cell_25/test_col_inv_array_cell_inv_0/li_5_94# test_col_inv_array_cell_31/test_col_inv_array_cell_inv_0/ptx__nmos_svt_1400_150_1__pmos_svt_2600_150_1_0/a_0_0#
+ test_col_inv_array_cell_18/test_col_inv_array_cell_inv_0/ptx__nmos_svt_1400_150_1__pmos_svt_2600_150_1_0/a_0_0#
+ test_col_inv_array_cell_21/test_col_inv_array_cell_inv_0/ptx__nmos_svt_1400_150_1__pmos_svt_2600_150_1_0/a_n38_53#
+ test_col_inv_array_cell_7/test_col_inv_array_cell_inv_0/ptx__nmos_svt_1400_150_1__pmos_svt_2600_150_1_0/w_348_n36#
+ test_col_inv_array_cell_22/test_col_inv_array_cell_inv_0/ptx__nmos_svt_1400_150_1__pmos_svt_2600_150_1_0/a_384_0#
+ test_col_inv_array_cell_2/test_col_inv_array_cell_inv_0/ptx__nmos_svt_1400_150_1__pmos_svt_2600_150_1_0/a_384_0#
+ test_col_inv_array_cell_31/test_col_inv_array_cell_inv_0/li_5_94# test_col_inv_array_cell_24/test_col_inv_array_cell_inv_0/ptx__nmos_svt_1400_150_1__pmos_svt_2600_150_1_0/w_348_n36#
+ test_col_inv_array_cell_11/test_col_inv_array_cell_inv_0/ptx__nmos_svt_1400_150_1__pmos_svt_2600_150_1_0/a_n38_53#
+ test_col_inv_array_cell_2/test_col_inv_array_cell_inv_0/ptx__nmos_svt_1400_150_1__pmos_svt_2600_150_1_0/a_0_0#
+ test_col_inv_array_cell_10/test_col_inv_array_cell_inv_0/ptx__nmos_svt_1400_150_1__pmos_svt_2600_150_1_0/w_348_n36#
+ test_col_inv_array_cell_12/test_col_inv_array_cell_inv_0/ptx__nmos_svt_1400_150_1__pmos_svt_2600_150_1_0/a_0_0#
+ test_col_inv_array_cell_9/test_col_inv_array_cell_inv_0/ptx__nmos_svt_1400_150_1__pmos_svt_2600_150_1_0/a_n38_53#
+ test_col_inv_array_cell_26/test_col_inv_array_cell_inv_0/li_5_94# test_col_inv_array_cell_7/test_col_inv_array_cell_inv_0/ptx__nmos_svt_1400_150_1__pmos_svt_2600_150_1_0/a_384_0#
+ test_col_inv_array_cell_27/test_col_inv_array_cell_inv_0/ptx__nmos_svt_1400_150_1__pmos_svt_2600_150_1_0/a_384_0#
+ test_col_inv_array_cell_24/test_col_inv_array_cell_inv_0/ptx__nmos_svt_1400_150_1__pmos_svt_2600_150_1_0/a_0_0#
+ test_col_inv_array_cell_27/test_col_inv_array_cell_inv_0/ptx__nmos_svt_1400_150_1__pmos_svt_2600_150_1_0/w_348_n36#
+ test_col_inv_array_cell_26/test_col_inv_array_cell_inv_0/ptx__nmos_svt_1400_150_1__pmos_svt_2600_150_1_0/a_n38_53#
+ test_col_inv_array_cell_13/test_col_inv_array_cell_inv_0/ptx__nmos_svt_1400_150_1__pmos_svt_2600_150_1_0/w_348_n36#
+ test_col_inv_array_cell_16/test_col_inv_array_cell_inv_0/ptx__nmos_svt_1400_150_1__pmos_svt_2600_150_1_0/a_n38_53#
+ test_col_inv_array_cell_27/test_col_inv_array_cell_inv_0/li_5_94# test_col_inv_array_cell_30/test_col_inv_array_cell_inv_0/ptx__nmos_svt_1400_150_1__pmos_svt_2600_150_1_0/a_n38_53#
+ test_col_inv_array_cell_3/test_col_inv_array_cell_inv_0/ptx__nmos_svt_1400_150_1__pmos_svt_2600_150_1_0/a_n38_53#
+ test_col_inv_array_cell_14/test_col_inv_array_cell_inv_0/ptx__nmos_svt_1400_150_1__pmos_svt_2600_150_1_0/a_384_0#
+ test_col_inv_array_cell_7/test_col_inv_array_cell_inv_0/ptx__nmos_svt_1400_150_1__pmos_svt_2600_150_1_0/a_0_0#
+ test_col_inv_array_cell_30/test_col_inv_array_cell_inv_0/ptx__nmos_svt_1400_150_1__pmos_svt_2600_150_1_0/a_0_0#
+ test_col_inv_array_cell_17/test_col_inv_array_cell_inv_0/ptx__nmos_svt_1400_150_1__pmos_svt_2600_150_1_0/a_0_0#
+ test_col_inv_array_cell_16/test_col_inv_array_cell_inv_0/ptx__nmos_svt_1400_150_1__pmos_svt_2600_150_1_0/w_348_n36#
+ test_col_inv_array_cell_30/test_col_inv_array_cell_inv_0/ptx__nmos_svt_1400_150_1__pmos_svt_2600_150_1_0/w_348_n36#
+ test_col_inv_array_cell_20/test_col_inv_array_cell_inv_0/ptx__nmos_svt_1400_150_1__pmos_svt_2600_150_1_0/a_n38_53#
+ test_col_inv_array_cell_0/test_col_inv_array_cell_inv_0/li_5_94#
Xtest_col_inv_array_cell_4 test_col_inv_array_cell_4/test_col_inv_array_cell_inv_0/ptx__nmos_svt_1400_150_1__pmos_svt_2600_150_1_0/a_n38_53#
+ test_col_inv_array_cell_4/test_col_inv_array_cell_inv_0/ptx__nmos_svt_1400_150_1__pmos_svt_2600_150_1_0/a_0_0#
+ test_col_inv_array_cell_4/test_col_inv_array_cell_inv_0/ptx__nmos_svt_1400_150_1__pmos_svt_2600_150_1_0/w_348_n36#
+ SUB test_col_inv_array_cell_4/test_col_inv_array_cell_inv_0/ptx__nmos_svt_1400_150_1__pmos_svt_2600_150_1_0/a_384_0#
+ test_col_inv_array_cell_4/test_col_inv_array_cell_inv_0/li_5_94# test_col_inv_array_cell
Xtest_col_inv_array_cell_5 test_col_inv_array_cell_5/test_col_inv_array_cell_inv_0/ptx__nmos_svt_1400_150_1__pmos_svt_2600_150_1_0/a_n38_53#
+ test_col_inv_array_cell_5/test_col_inv_array_cell_inv_0/ptx__nmos_svt_1400_150_1__pmos_svt_2600_150_1_0/a_0_0#
+ test_col_inv_array_cell_5/test_col_inv_array_cell_inv_0/ptx__nmos_svt_1400_150_1__pmos_svt_2600_150_1_0/w_348_n36#
+ SUB test_col_inv_array_cell_5/test_col_inv_array_cell_inv_0/ptx__nmos_svt_1400_150_1__pmos_svt_2600_150_1_0/a_384_0#
+ test_col_inv_array_cell_5/test_col_inv_array_cell_inv_0/li_5_94# test_col_inv_array_cell
Xtest_col_inv_array_cell_6 test_col_inv_array_cell_6/test_col_inv_array_cell_inv_0/ptx__nmos_svt_1400_150_1__pmos_svt_2600_150_1_0/a_n38_53#
+ test_col_inv_array_cell_6/test_col_inv_array_cell_inv_0/ptx__nmos_svt_1400_150_1__pmos_svt_2600_150_1_0/a_0_0#
+ test_col_inv_array_cell_6/test_col_inv_array_cell_inv_0/ptx__nmos_svt_1400_150_1__pmos_svt_2600_150_1_0/w_348_n36#
+ SUB test_col_inv_array_cell_6/test_col_inv_array_cell_inv_0/ptx__nmos_svt_1400_150_1__pmos_svt_2600_150_1_0/a_384_0#
+ test_col_inv_array_cell_6/test_col_inv_array_cell_inv_0/li_5_94# test_col_inv_array_cell
Xtest_col_inv_array_cell_20 test_col_inv_array_cell_20/test_col_inv_array_cell_inv_0/ptx__nmos_svt_1400_150_1__pmos_svt_2600_150_1_0/a_n38_53#
+ test_col_inv_array_cell_20/test_col_inv_array_cell_inv_0/ptx__nmos_svt_1400_150_1__pmos_svt_2600_150_1_0/a_0_0#
+ test_col_inv_array_cell_20/test_col_inv_array_cell_inv_0/ptx__nmos_svt_1400_150_1__pmos_svt_2600_150_1_0/w_348_n36#
+ SUB test_col_inv_array_cell_20/test_col_inv_array_cell_inv_0/ptx__nmos_svt_1400_150_1__pmos_svt_2600_150_1_0/a_384_0#
+ test_col_inv_array_cell_20/test_col_inv_array_cell_inv_0/li_5_94# test_col_inv_array_cell
Xtest_col_inv_array_cell_30 test_col_inv_array_cell_30/test_col_inv_array_cell_inv_0/ptx__nmos_svt_1400_150_1__pmos_svt_2600_150_1_0/a_n38_53#
+ test_col_inv_array_cell_30/test_col_inv_array_cell_inv_0/ptx__nmos_svt_1400_150_1__pmos_svt_2600_150_1_0/a_0_0#
+ test_col_inv_array_cell_30/test_col_inv_array_cell_inv_0/ptx__nmos_svt_1400_150_1__pmos_svt_2600_150_1_0/w_348_n36#
+ SUB test_col_inv_array_cell_30/test_col_inv_array_cell_inv_0/ptx__nmos_svt_1400_150_1__pmos_svt_2600_150_1_0/a_384_0#
+ test_col_inv_array_cell_30/test_col_inv_array_cell_inv_0/li_5_94# test_col_inv_array_cell
Xtest_col_inv_array_cell_31 test_col_inv_array_cell_31/test_col_inv_array_cell_inv_0/ptx__nmos_svt_1400_150_1__pmos_svt_2600_150_1_0/a_n38_53#
+ test_col_inv_array_cell_31/test_col_inv_array_cell_inv_0/ptx__nmos_svt_1400_150_1__pmos_svt_2600_150_1_0/a_0_0#
+ test_col_inv_array_cell_31/test_col_inv_array_cell_inv_0/ptx__nmos_svt_1400_150_1__pmos_svt_2600_150_1_0/w_348_n36#
+ SUB test_col_inv_array_cell_31/test_col_inv_array_cell_inv_0/ptx__nmos_svt_1400_150_1__pmos_svt_2600_150_1_0/a_384_0#
+ test_col_inv_array_cell_31/test_col_inv_array_cell_inv_0/li_5_94# test_col_inv_array_cell
Xtest_col_inv_array_cell_7 test_col_inv_array_cell_7/test_col_inv_array_cell_inv_0/ptx__nmos_svt_1400_150_1__pmos_svt_2600_150_1_0/a_n38_53#
+ test_col_inv_array_cell_7/test_col_inv_array_cell_inv_0/ptx__nmos_svt_1400_150_1__pmos_svt_2600_150_1_0/a_0_0#
+ test_col_inv_array_cell_7/test_col_inv_array_cell_inv_0/ptx__nmos_svt_1400_150_1__pmos_svt_2600_150_1_0/w_348_n36#
+ SUB test_col_inv_array_cell_7/test_col_inv_array_cell_inv_0/ptx__nmos_svt_1400_150_1__pmos_svt_2600_150_1_0/a_384_0#
+ test_col_inv_array_cell_7/test_col_inv_array_cell_inv_0/li_5_94# test_col_inv_array_cell
Xtest_col_inv_array_cell_10 test_col_inv_array_cell_10/test_col_inv_array_cell_inv_0/ptx__nmos_svt_1400_150_1__pmos_svt_2600_150_1_0/a_n38_53#
+ test_col_inv_array_cell_10/test_col_inv_array_cell_inv_0/ptx__nmos_svt_1400_150_1__pmos_svt_2600_150_1_0/a_0_0#
+ test_col_inv_array_cell_10/test_col_inv_array_cell_inv_0/ptx__nmos_svt_1400_150_1__pmos_svt_2600_150_1_0/w_348_n36#
+ SUB test_col_inv_array_cell_10/test_col_inv_array_cell_inv_0/ptx__nmos_svt_1400_150_1__pmos_svt_2600_150_1_0/a_384_0#
+ test_col_inv_array_cell_10/test_col_inv_array_cell_inv_0/li_5_94# test_col_inv_array_cell
Xtest_col_inv_array_cell_21 test_col_inv_array_cell_21/test_col_inv_array_cell_inv_0/ptx__nmos_svt_1400_150_1__pmos_svt_2600_150_1_0/a_n38_53#
+ test_col_inv_array_cell_21/test_col_inv_array_cell_inv_0/ptx__nmos_svt_1400_150_1__pmos_svt_2600_150_1_0/a_0_0#
+ test_col_inv_array_cell_21/test_col_inv_array_cell_inv_0/ptx__nmos_svt_1400_150_1__pmos_svt_2600_150_1_0/w_348_n36#
+ SUB test_col_inv_array_cell_21/test_col_inv_array_cell_inv_0/ptx__nmos_svt_1400_150_1__pmos_svt_2600_150_1_0/a_384_0#
+ test_col_inv_array_cell_21/test_col_inv_array_cell_inv_0/li_5_94# test_col_inv_array_cell
Xtest_col_inv_array_cell_8 test_col_inv_array_cell_8/test_col_inv_array_cell_inv_0/ptx__nmos_svt_1400_150_1__pmos_svt_2600_150_1_0/a_n38_53#
+ test_col_inv_array_cell_8/test_col_inv_array_cell_inv_0/ptx__nmos_svt_1400_150_1__pmos_svt_2600_150_1_0/a_0_0#
+ test_col_inv_array_cell_8/test_col_inv_array_cell_inv_0/ptx__nmos_svt_1400_150_1__pmos_svt_2600_150_1_0/w_348_n36#
+ SUB test_col_inv_array_cell_8/test_col_inv_array_cell_inv_0/ptx__nmos_svt_1400_150_1__pmos_svt_2600_150_1_0/a_384_0#
+ test_col_inv_array_cell_8/test_col_inv_array_cell_inv_0/li_5_94# test_col_inv_array_cell
Xtest_col_inv_array_cell_11 test_col_inv_array_cell_11/test_col_inv_array_cell_inv_0/ptx__nmos_svt_1400_150_1__pmos_svt_2600_150_1_0/a_n38_53#
+ test_col_inv_array_cell_11/test_col_inv_array_cell_inv_0/ptx__nmos_svt_1400_150_1__pmos_svt_2600_150_1_0/a_0_0#
+ test_col_inv_array_cell_11/test_col_inv_array_cell_inv_0/ptx__nmos_svt_1400_150_1__pmos_svt_2600_150_1_0/w_348_n36#
+ SUB test_col_inv_array_cell_11/test_col_inv_array_cell_inv_0/ptx__nmos_svt_1400_150_1__pmos_svt_2600_150_1_0/a_384_0#
+ test_col_inv_array_cell_11/test_col_inv_array_cell_inv_0/li_5_94# test_col_inv_array_cell
Xtest_col_inv_array_cell_22 test_col_inv_array_cell_22/test_col_inv_array_cell_inv_0/ptx__nmos_svt_1400_150_1__pmos_svt_2600_150_1_0/a_n38_53#
+ test_col_inv_array_cell_22/test_col_inv_array_cell_inv_0/ptx__nmos_svt_1400_150_1__pmos_svt_2600_150_1_0/a_0_0#
+ test_col_inv_array_cell_22/test_col_inv_array_cell_inv_0/ptx__nmos_svt_1400_150_1__pmos_svt_2600_150_1_0/w_348_n36#
+ SUB test_col_inv_array_cell_22/test_col_inv_array_cell_inv_0/ptx__nmos_svt_1400_150_1__pmos_svt_2600_150_1_0/a_384_0#
+ test_col_inv_array_cell_22/test_col_inv_array_cell_inv_0/li_5_94# test_col_inv_array_cell
Xtest_col_inv_array_cell_9 test_col_inv_array_cell_9/test_col_inv_array_cell_inv_0/ptx__nmos_svt_1400_150_1__pmos_svt_2600_150_1_0/a_n38_53#
+ test_col_inv_array_cell_9/test_col_inv_array_cell_inv_0/ptx__nmos_svt_1400_150_1__pmos_svt_2600_150_1_0/a_0_0#
+ test_col_inv_array_cell_9/test_col_inv_array_cell_inv_0/ptx__nmos_svt_1400_150_1__pmos_svt_2600_150_1_0/w_348_n36#
+ SUB test_col_inv_array_cell_9/test_col_inv_array_cell_inv_0/ptx__nmos_svt_1400_150_1__pmos_svt_2600_150_1_0/a_384_0#
+ test_col_inv_array_cell_9/test_col_inv_array_cell_inv_0/li_5_94# test_col_inv_array_cell
Xtest_col_inv_array_cell_12 test_col_inv_array_cell_12/test_col_inv_array_cell_inv_0/ptx__nmos_svt_1400_150_1__pmos_svt_2600_150_1_0/a_n38_53#
+ test_col_inv_array_cell_12/test_col_inv_array_cell_inv_0/ptx__nmos_svt_1400_150_1__pmos_svt_2600_150_1_0/a_0_0#
+ test_col_inv_array_cell_12/test_col_inv_array_cell_inv_0/ptx__nmos_svt_1400_150_1__pmos_svt_2600_150_1_0/w_348_n36#
+ SUB test_col_inv_array_cell_12/test_col_inv_array_cell_inv_0/ptx__nmos_svt_1400_150_1__pmos_svt_2600_150_1_0/a_384_0#
+ test_col_inv_array_cell_12/test_col_inv_array_cell_inv_0/li_5_94# test_col_inv_array_cell
Xtest_col_inv_array_cell_23 test_col_inv_array_cell_23/test_col_inv_array_cell_inv_0/ptx__nmos_svt_1400_150_1__pmos_svt_2600_150_1_0/a_n38_53#
+ test_col_inv_array_cell_23/test_col_inv_array_cell_inv_0/ptx__nmos_svt_1400_150_1__pmos_svt_2600_150_1_0/a_0_0#
+ test_col_inv_array_cell_23/test_col_inv_array_cell_inv_0/ptx__nmos_svt_1400_150_1__pmos_svt_2600_150_1_0/w_348_n36#
+ SUB test_col_inv_array_cell_23/test_col_inv_array_cell_inv_0/ptx__nmos_svt_1400_150_1__pmos_svt_2600_150_1_0/a_384_0#
+ test_col_inv_array_cell_23/test_col_inv_array_cell_inv_0/li_5_94# test_col_inv_array_cell
Xtest_col_inv_array_cell_13 test_col_inv_array_cell_13/test_col_inv_array_cell_inv_0/ptx__nmos_svt_1400_150_1__pmos_svt_2600_150_1_0/a_n38_53#
+ test_col_inv_array_cell_13/test_col_inv_array_cell_inv_0/ptx__nmos_svt_1400_150_1__pmos_svt_2600_150_1_0/a_0_0#
+ test_col_inv_array_cell_13/test_col_inv_array_cell_inv_0/ptx__nmos_svt_1400_150_1__pmos_svt_2600_150_1_0/w_348_n36#
+ SUB test_col_inv_array_cell_13/test_col_inv_array_cell_inv_0/ptx__nmos_svt_1400_150_1__pmos_svt_2600_150_1_0/a_384_0#
+ test_col_inv_array_cell_13/test_col_inv_array_cell_inv_0/li_5_94# test_col_inv_array_cell
Xtest_col_inv_array_cell_24 test_col_inv_array_cell_24/test_col_inv_array_cell_inv_0/ptx__nmos_svt_1400_150_1__pmos_svt_2600_150_1_0/a_n38_53#
+ test_col_inv_array_cell_24/test_col_inv_array_cell_inv_0/ptx__nmos_svt_1400_150_1__pmos_svt_2600_150_1_0/a_0_0#
+ test_col_inv_array_cell_24/test_col_inv_array_cell_inv_0/ptx__nmos_svt_1400_150_1__pmos_svt_2600_150_1_0/w_348_n36#
+ SUB test_col_inv_array_cell_24/test_col_inv_array_cell_inv_0/ptx__nmos_svt_1400_150_1__pmos_svt_2600_150_1_0/a_384_0#
+ test_col_inv_array_cell_24/test_col_inv_array_cell_inv_0/li_5_94# test_col_inv_array_cell
Xtest_col_inv_array_cell_14 test_col_inv_array_cell_14/test_col_inv_array_cell_inv_0/ptx__nmos_svt_1400_150_1__pmos_svt_2600_150_1_0/a_n38_53#
+ test_col_inv_array_cell_14/test_col_inv_array_cell_inv_0/ptx__nmos_svt_1400_150_1__pmos_svt_2600_150_1_0/a_0_0#
+ test_col_inv_array_cell_14/test_col_inv_array_cell_inv_0/ptx__nmos_svt_1400_150_1__pmos_svt_2600_150_1_0/w_348_n36#
+ SUB test_col_inv_array_cell_14/test_col_inv_array_cell_inv_0/ptx__nmos_svt_1400_150_1__pmos_svt_2600_150_1_0/a_384_0#
+ test_col_inv_array_cell_14/test_col_inv_array_cell_inv_0/li_5_94# test_col_inv_array_cell
Xtest_col_inv_array_cell_25 test_col_inv_array_cell_25/test_col_inv_array_cell_inv_0/ptx__nmos_svt_1400_150_1__pmos_svt_2600_150_1_0/a_n38_53#
+ test_col_inv_array_cell_25/test_col_inv_array_cell_inv_0/ptx__nmos_svt_1400_150_1__pmos_svt_2600_150_1_0/a_0_0#
+ test_col_inv_array_cell_25/test_col_inv_array_cell_inv_0/ptx__nmos_svt_1400_150_1__pmos_svt_2600_150_1_0/w_348_n36#
+ SUB test_col_inv_array_cell_25/test_col_inv_array_cell_inv_0/ptx__nmos_svt_1400_150_1__pmos_svt_2600_150_1_0/a_384_0#