*SPICE NETLIST
* OPEN SOURCE CONVERSION PRELUDE

.SUBCKT sky130_fd_pr__special_nfet_pass d g s b PARAMS: w=1.0 l=1.0 mult=1
M0 d g s b npass l='l' w='w' mult='mult'
.ENDS

.SUBCKT sky130_fd_pr__special_nfet_latch d g s b PARAMS: w=1.0 l=1.0 mult=1
M0 d g s b npd l='l' w='w' mult='mult'
.ENDS

.SUBCKT sky130_fd_pr__nfet_01v8 d g s b PARAMS: w=1.0 l=1.0 mult=1
M0 d g s b nfet_01v8 l='l' w='w' mult='mult'
.ENDS

.SUBCKT sky130_fd_pr__pfet_01v8 d g s b PARAMS: w=1.0 l=1.0 mult=1
M0 d g s b pfet_01v8 l='l' w='w' mult='mult'
.ENDS

.SUBCKT sky130_fd_pr__special_pfet_pass d g s b PARAMS: w=1.0 l=1.0 mult=1
M0 d g s b ppu l='l' w='w' mult='mult'
.ENDS

.SUBCKT sky130_fd_pr__pfet_01v8_hvt d g s b PARAMS: w=1.0 l=1.0 mult=1
M0 d g s b phighvt l='l' w='w' mult='mult'
.ENDS
* circuit.Package sramgen_sram_32x32m2
* Written by SpiceNetlister
* 

.SUBCKT hierarchical_decoder_nand_2 
+ gnd vdd a b y 

xn1 
+ x a gnd gnd 
+ sky130_fd_pr__nfet_01v8 
+ w='3.2' l='0.15' 

xn2 
+ y b x gnd 
+ sky130_fd_pr__nfet_01v8 
+ w='3.2' l='0.15' 

xp1 
+ y a vdd vdd 
+ sky130_fd_pr__pfet_01v8 
+ w='2.4' l='0.15' 

xp2 
+ y b vdd vdd 
+ sky130_fd_pr__pfet_01v8 
+ w='2.4' l='0.15' 

.ENDS

.SUBCKT hierarchical_decoder_inv_3 
+ gnd vdd din din_b 

xn 
+ din_b din gnd gnd 
+ sky130_fd_pr__nfet_01v8 
+ w='1.6' l='0.15' 

xp 
+ din_b din vdd vdd 
+ sky130_fd_pr__pfet_01v8 
+ w='2.4' l='0.15' 

.ENDS

.SUBCKT hierarchical_decoder_nand_17 
+ gnd vdd a b c y 

xn1 
+ x1 a gnd gnd 
+ sky130_fd_pr__nfet_01v8 
+ w='3.2' l='0.15' 

xn2 
+ x2 b x1 gnd 
+ sky130_fd_pr__nfet_01v8 
+ w='3.2' l='0.15' 

xn3 
+ y c x2 gnd 
+ sky130_fd_pr__nfet_01v8 
+ w='3.2' l='0.15' 

xp1 
+ y a vdd vdd 
+ sky130_fd_pr__pfet_01v8 
+ w='2.4' l='0.15' 

xp2 
+ y b vdd vdd 
+ sky130_fd_pr__pfet_01v8 
+ w='2.4' l='0.15' 

xp3 
+ y c vdd vdd 
+ sky130_fd_pr__pfet_01v8 
+ w='2.4' l='0.15' 

.ENDS

.SUBCKT hierarchical_decoder 
+ vdd gnd addr_4 addr_3 addr_2 addr_1 addr_0 addr_b_4 addr_b_3 addr_b_2 addr_b_1 addr_b_0 decode_31 decode_30 decode_29 decode_28 decode_27 decode_26 decode_25 decode_24 decode_23 decode_22 decode_21 decode_20 decode_19 decode_18 decode_17 decode_16 decode_15 decode_14 decode_13 decode_12 decode_11 decode_10 decode_9 decode_8 decode_7 decode_6 decode_5 decode_4 decode_3 decode_2 decode_1 decode_0 decode_b_31 decode_b_30 decode_b_29 decode_b_28 decode_b_27 decode_b_26 decode_b_25 decode_b_24 decode_b_23 decode_b_22 decode_b_21 decode_b_20 decode_b_19 decode_b_18 decode_b_17 decode_b_16 decode_b_15 decode_b_14 decode_b_13 decode_b_12 decode_b_11 decode_b_10 decode_b_9 decode_b_8 decode_b_7 decode_b_6 decode_b_5 decode_b_4 decode_b_3 decode_b_2 decode_b_1 decode_b_0 

xnand_5 
+ gnd vdd addr_b_4 addr_b_3 net_4 
+ hierarchical_decoder_nand_2 
* No parameters

xinv_6 
+ gnd vdd net_4 predecode_1_0 
+ hierarchical_decoder_inv_3 
* No parameters

xnand_8 
+ gnd vdd addr_b_4 addr_3 net_7 
+ hierarchical_decoder_nand_2 
* No parameters

xinv_9 
+ gnd vdd net_7 predecode_1_1 
+ hierarchical_decoder_inv_3 
* No parameters

xnand_11 
+ gnd vdd addr_4 addr_b_3 net_10 
+ hierarchical_decoder_nand_2 
* No parameters

xinv_12 
+ gnd vdd net_10 predecode_1_2 
+ hierarchical_decoder_inv_3 
* No parameters

xnand_14 
+ gnd vdd addr_4 addr_3 net_13 
+ hierarchical_decoder_nand_2 
* No parameters

xinv_15 
+ gnd vdd net_13 predecode_1_3 
+ hierarchical_decoder_inv_3 
* No parameters

xnand_19 
+ gnd vdd addr_b_2 addr_b_1 addr_b_0 net_18 
+ hierarchical_decoder_nand_17 
* No parameters

xinv_20 
+ gnd vdd net_18 predecode_16_0 
+ hierarchical_decoder_inv_3 
* No parameters

xnand_22 
+ gnd vdd addr_b_2 addr_b_1 addr_0 net_21 
+ hierarchical_decoder_nand_17 
* No parameters

xinv_23 
+ gnd vdd net_21 predecode_16_1 
+ hierarchical_decoder_inv_3 
* No parameters

xnand_25 
+ gnd vdd addr_b_2 addr_1 addr_b_0 net_24 
+ hierarchical_decoder_nand_17 
* No parameters

xinv_26 
+ gnd vdd net_24 predecode_16_2 
+ hierarchical_decoder_inv_3 
* No parameters

xnand_28 
+ gnd vdd addr_b_2 addr_1 addr_0 net_27 
+ hierarchical_decoder_nand_17 
* No parameters

xinv_29 
+ gnd vdd net_27 predecode_16_3 
+ hierarchical_decoder_inv_3 
* No parameters

xnand_31 
+ gnd vdd addr_2 addr_b_1 addr_b_0 net_30 
+ hierarchical_decoder_nand_17 
* No parameters

xinv_32 
+ gnd vdd net_30 predecode_16_4 
+ hierarchical_decoder_inv_3 
* No parameters

xnand_34 
+ gnd vdd addr_2 addr_b_1 addr_0 net_33 
+ hierarchical_decoder_nand_17 
* No parameters

xinv_35 
+ gnd vdd net_33 predecode_16_5 
+ hierarchical_decoder_inv_3 
* No parameters

xnand_37 
+ gnd vdd addr_2 addr_1 addr_b_0 net_36 
+ hierarchical_decoder_nand_17 
* No parameters

xinv_38 
+ gnd vdd net_36 predecode_16_6 
+ hierarchical_decoder_inv_3 
* No parameters

xnand_40 
+ gnd vdd addr_2 addr_1 addr_0 net_39 
+ hierarchical_decoder_nand_17 
* No parameters

xinv_41 
+ gnd vdd net_39 predecode_16_7 
+ hierarchical_decoder_inv_3 
* No parameters

xnand_42 
+ gnd vdd predecode_1_0 predecode_16_0 decode_b_0 
+ hierarchical_decoder_nand_2 
* No parameters

xinv_43 
+ gnd vdd decode_b_0 decode_0 
+ hierarchical_decoder_inv_3 
* No parameters

xnand_44 
+ gnd vdd predecode_1_0 predecode_16_1 decode_b_1 
+ hierarchical_decoder_nand_2 
* No parameters

xinv_45 
+ gnd vdd decode_b_1 decode_1 
+ hierarchical_decoder_inv_3 
* No parameters

xnand_46 
+ gnd vdd predecode_1_0 predecode_16_2 decode_b_2 
+ hierarchical_decoder_nand_2 
* No parameters

xinv_47 
+ gnd vdd decode_b_2 decode_2 
+ hierarchical_decoder_inv_3 
* No parameters

xnand_48 
+ gnd vdd predecode_1_0 predecode_16_3 decode_b_3 
+ hierarchical_decoder_nand_2 
* No parameters

xinv_49 
+ gnd vdd decode_b_3 decode_3 
+ hierarchical_decoder_inv_3 
* No parameters

xnand_50 
+ gnd vdd predecode_1_0 predecode_16_4 decode_b_4 
+ hierarchical_decoder_nand_2 
* No parameters

xinv_51 
+ gnd vdd decode_b_4 decode_4 
+ hierarchical_decoder_inv_3 
* No parameters

xnand_52 
+ gnd vdd predecode_1_0 predecode_16_5 decode_b_5 
+ hierarchical_decoder_nand_2 
* No parameters

xinv_53 
+ gnd vdd decode_b_5 decode_5 
+ hierarchical_decoder_inv_3 
* No parameters

xnand_54 
+ gnd vdd predecode_1_0 predecode_16_6 decode_b_6 
+ hierarchical_decoder_nand_2 
* No parameters

xinv_55 
+ gnd vdd decode_b_6 decode_6 
+ hierarchical_decoder_inv_3 
* No parameters

xnand_56 
+ gnd vdd predecode_1_0 predecode_16_7 decode_b_7 
+ hierarchical_decoder_nand_2 
* No parameters

xinv_57 
+ gnd vdd decode_b_7 decode_7 
+ hierarchical_decoder_inv_3 
* No parameters

xnand_58 
+ gnd vdd predecode_1_1 predecode_16_0 decode_b_8 
+ hierarchical_decoder_nand_2 
* No parameters

xinv_59 
+ gnd vdd decode_b_8 decode_8 
+ hierarchical_decoder_inv_3 
* No parameters

xnand_60 
+ gnd vdd predecode_1_1 predecode_16_1 decode_b_9 
+ hierarchical_decoder_nand_2 
* No parameters

xinv_61 
+ gnd vdd decode_b_9 decode_9 
+ hierarchical_decoder_inv_3 
* No parameters

xnand_62 
+ gnd vdd predecode_1_1 predecode_16_2 decode_b_10 
+ hierarchical_decoder_nand_2 
* No parameters

xinv_63 
+ gnd vdd decode_b_10 decode_10 
+ hierarchical_decoder_inv_3 
* No parameters

xnand_64 
+ gnd vdd predecode_1_1 predecode_16_3 decode_b_11 
+ hierarchical_decoder_nand_2 
* No parameters

xinv_65 
+ gnd vdd decode_b_11 decode_11 
+ hierarchical_decoder_inv_3 
* No parameters

xnand_66 
+ gnd vdd predecode_1_1 predecode_16_4 decode_b_12 
+ hierarchical_decoder_nand_2 
* No parameters

xinv_67 
+ gnd vdd decode_b_12 decode_12 
+ hierarchical_decoder_inv_3 
* No parameters

xnand_68 
+ gnd vdd predecode_1_1 predecode_16_5 decode_b_13 
+ hierarchical_decoder_nand_2 
* No parameters

xinv_69 
+ gnd vdd decode_b_13 decode_13 
+ hierarchical_decoder_inv_3 
* No parameters

xnand_70 
+ gnd vdd predecode_1_1 predecode_16_6 decode_b_14 
+ hierarchical_decoder_nand_2 
* No parameters

xinv_71 
+ gnd vdd decode_b_14 decode_14 
+ hierarchical_decoder_inv_3 
* No parameters

xnand_72 
+ gnd vdd predecode_1_1 predecode_16_7 decode_b_15 
+ hierarchical_decoder_nand_2 
* No parameters

xinv_73 
+ gnd vdd decode_b_15 decode_15 
+ hierarchical_decoder_inv_3 
* No parameters

xnand_74 
+ gnd vdd predecode_1_2 predecode_16_0 decode_b_16 
+ hierarchical_decoder_nand_2 
* No parameters

xinv_75 
+ gnd vdd decode_b_16 decode_16 
+ hierarchical_decoder_inv_3 
* No parameters

xnand_76 
+ gnd vdd predecode_1_2 predecode_16_1 decode_b_17 
+ hierarchical_decoder_nand_2 
* No parameters

xinv_77 
+ gnd vdd decode_b_17 decode_17 
+ hierarchical_decoder_inv_3 
* No parameters

xnand_78 
+ gnd vdd predecode_1_2 predecode_16_2 decode_b_18 
+ hierarchical_decoder_nand_2 
* No parameters

xinv_79 
+ gnd vdd decode_b_18 decode_18 
+ hierarchical_decoder_inv_3 
* No parameters

xnand_80 
+ gnd vdd predecode_1_2 predecode_16_3 decode_b_19 
+ hierarchical_decoder_nand_2 
* No parameters

xinv_81 
+ gnd vdd decode_b_19 decode_19 
+ hierarchical_decoder_inv_3 
* No parameters

xnand_82 
+ gnd vdd predecode_1_2 predecode_16_4 decode_b_20 
+ hierarchical_decoder_nand_2 
* No parameters

xinv_83 
+ gnd vdd decode_b_20 decode_20 
+ hierarchical_decoder_inv_3 
* No parameters

xnand_84 
+ gnd vdd predecode_1_2 predecode_16_5 decode_b_21 
+ hierarchical_decoder_nand_2 
* No parameters

xinv_85 
+ gnd vdd decode_b_21 decode_21 
+ hierarchical_decoder_inv_3 
* No parameters

xnand_86 
+ gnd vdd predecode_1_2 predecode_16_6 decode_b_22 
+ hierarchical_decoder_nand_2 
* No parameters

xinv_87 
+ gnd vdd decode_b_22 decode_22 
+ hierarchical_decoder_inv_3 
* No parameters

xnand_88 
+ gnd vdd predecode_1_2 predecode_16_7 decode_b_23 
+ hierarchical_decoder_nand_2 
* No parameters

xinv_89 
+ gnd vdd decode_b_23 decode_23 
+ hierarchical_decoder_inv_3 
* No parameters

xnand_90 
+ gnd vdd predecode_1_3 predecode_16_0 decode_b_24 
+ hierarchical_decoder_nand_2 
* No parameters

xinv_91 
+ gnd vdd decode_b_24 decode_24 
+ hierarchical_decoder_inv_3 
* No parameters

xnand_92 
+ gnd vdd predecode_1_3 predecode_16_1 decode_b_25 
+ hierarchical_decoder_nand_2 
* No parameters

xinv_93 
+ gnd vdd decode_b_25 decode_25 
+ hierarchical_decoder_inv_3 
* No parameters

xnand_94 
+ gnd vdd predecode_1_3 predecode_16_2 decode_b_26 
+ hierarchical_decoder_nand_2 
* No parameters

xinv_95 
+ gnd vdd decode_b_26 decode_26 
+ hierarchical_decoder_inv_3 
* No parameters

xnand_96 
+ gnd vdd predecode_1_3 predecode_16_3 decode_b_27 
+ hierarchical_decoder_nand_2 
* No parameters

xinv_97 
+ gnd vdd decode_b_27 decode_27 
+ hierarchical_decoder_inv_3 
* No parameters

xnand_98 
+ gnd vdd predecode_1_3 predecode_16_4 decode_b_28 
+ hierarchical_decoder_nand_2 
* No parameters

xinv_99 
+ gnd vdd decode_b_28 decode_28 
+ hierarchical_decoder_inv_3 
* No parameters

xnand_100 
+ gnd vdd predecode_1_3 predecode_16_5 decode_b_29 
+ hierarchical_decoder_nand_2 
* No parameters

xinv_101 
+ gnd vdd decode_b_29 decode_29 
+ hierarchical_decoder_inv_3 
* No parameters

xnand_102 
+ gnd vdd predecode_1_3 predecode_16_6 decode_b_30 
+ hierarchical_decoder_nand_2 
* No parameters

xinv_103 
+ gnd vdd decode_b_30 decode_30 
+ hierarchical_decoder_inv_3 
* No parameters

xnand_104 
+ gnd vdd predecode_1_3 predecode_16_7 decode_b_31 
+ hierarchical_decoder_nand_2 
* No parameters

xinv_105 
+ gnd vdd decode_b_31 decode_31 
+ hierarchical_decoder_inv_3 
* No parameters

.ENDS

.SUBCKT wordline_driver_and2_nand 
+ gnd vdd a b y 

xn1 
+ x a gnd gnd 
+ sky130_fd_pr__nfet_01v8 
+ w='3.2' l='0.15' 

xn2 
+ y b x gnd 
+ sky130_fd_pr__nfet_01v8 
+ w='3.2' l='0.15' 

xp1 
+ y a vdd vdd 
+ sky130_fd_pr__pfet_01v8 
+ w='2.4' l='0.15' 

xp2 
+ y b vdd vdd 
+ sky130_fd_pr__pfet_01v8 
+ w='2.4' l='0.15' 

.ENDS

.SUBCKT wordline_driver_and2_inv 
+ gnd vdd din din_b 

xn 
+ din_b din gnd gnd 
+ sky130_fd_pr__nfet_01v8 
+ w='1.6' l='0.15' 

xp 
+ din_b din vdd vdd 
+ sky130_fd_pr__pfet_01v8 
+ w='2.4' l='0.15' 

.ENDS

.SUBCKT wordline_driver_and2 
+ a b y vdd vss 

xnand 
+ vss vdd a b tmp 
+ wordline_driver_and2_nand 
* No parameters

xinv 
+ vss vdd tmp y 
+ wordline_driver_and2_inv 
* No parameters

.ENDS

.SUBCKT wordline_driver 
+ vdd vss din wl_en wl 

xand2 
+ din wl_en wl vdd vss 
+ wordline_driver_and2 
* No parameters

.ENDS

.SUBCKT wordline_driver_array 
+ vdd vss din_31 din_30 din_29 din_28 din_27 din_26 din_25 din_24 din_23 din_22 din_21 din_20 din_19 din_18 din_17 din_16 din_15 din_14 din_13 din_12 din_11 din_10 din_9 din_8 din_7 din_6 din_5 din_4 din_3 din_2 din_1 din_0 wl_en wl_31 wl_30 wl_29 wl_28 wl_27 wl_26 wl_25 wl_24 wl_23 wl_22 wl_21 wl_20 wl_19 wl_18 wl_17 wl_16 wl_15 wl_14 wl_13 wl_12 wl_11 wl_10 wl_9 wl_8 wl_7 wl_6 wl_5 wl_4 wl_3 wl_2 wl_1 wl_0 

xwl_driver_0 
+ vdd vss din_0 wl_en wl_0 
+ wordline_driver 
* No parameters

xwl_driver_1 
+ vdd vss din_1 wl_en wl_1 
+ wordline_driver 
* No parameters

xwl_driver_2 
+ vdd vss din_2 wl_en wl_2 
+ wordline_driver 
* No parameters

xwl_driver_3 
+ vdd vss din_3 wl_en wl_3 
+ wordline_driver 
* No parameters

xwl_driver_4 
+ vdd vss din_4 wl_en wl_4 
+ wordline_driver 
* No parameters

xwl_driver_5 
+ vdd vss din_5 wl_en wl_5 
+ wordline_driver 
* No parameters

xwl_driver_6 
+ vdd vss din_6 wl_en wl_6 
+ wordline_driver 
* No parameters

xwl_driver_7 
+ vdd vss din_7 wl_en wl_7 
+ wordline_driver 
* No parameters

xwl_driver_8 
+ vdd vss din_8 wl_en wl_8 
+ wordline_driver 
* No parameters

xwl_driver_9 
+ vdd vss din_9 wl_en wl_9 
+ wordline_driver 
* No parameters

xwl_driver_10 
+ vdd vss din_10 wl_en wl_10 
+ wordline_driver 
* No parameters

xwl_driver_11 
+ vdd vss din_11 wl_en wl_11 
+ wordline_driver 
* No parameters

xwl_driver_12 
+ vdd vss din_12 wl_en wl_12 
+ wordline_driver 
* No parameters

xwl_driver_13 
+ vdd vss din_13 wl_en wl_13 
+ wordline_driver 
* No parameters

xwl_driver_14 
+ vdd vss din_14 wl_en wl_14 
+ wordline_driver 
* No parameters

xwl_driver_15 
+ vdd vss din_15 wl_en wl_15 
+ wordline_driver 
* No parameters

xwl_driver_16 
+ vdd vss din_16 wl_en wl_16 
+ wordline_driver 
* No parameters

xwl_driver_17 
+ vdd vss din_17 wl_en wl_17 
+ wordline_driver 
* No parameters

xwl_driver_18 
+ vdd vss din_18 wl_en wl_18 
+ wordline_driver 
* No parameters

xwl_driver_19 
+ vdd vss din_19 wl_en wl_19 
+ wordline_driver 
* No parameters

xwl_driver_20 
+ vdd vss din_20 wl_en wl_20 
+ wordline_driver 
* No parameters

xwl_driver_21 
+ vdd vss din_21 wl_en wl_21 
+ wordline_driver 
* No parameters

xwl_driver_22 
+ vdd vss din_22 wl_en wl_22 
+ wordline_driver 
* No parameters

xwl_driver_23 
+ vdd vss din_23 wl_en wl_23 
+ wordline_driver 
* No parameters

xwl_driver_24 
+ vdd vss din_24 wl_en wl_24 
+ wordline_driver 
* No parameters

xwl_driver_25 
+ vdd vss din_25 wl_en wl_25 
+ wordline_driver 
* No parameters

xwl_driver_26 
+ vdd vss din_26 wl_en wl_26 
+ wordline_driver 
* No parameters

xwl_driver_27 
+ vdd vss din_27 wl_en wl_27 
+ wordline_driver 
* No parameters

xwl_driver_28 
+ vdd vss din_28 wl_en wl_28 
+ wordline_driver 
* No parameters

xwl_driver_29 
+ vdd vss din_29 wl_en wl_29 
+ wordline_driver 
* No parameters

xwl_driver_30 
+ vdd vss din_30 wl_en wl_30 
+ wordline_driver 
* No parameters

xwl_driver_31 
+ vdd vss din_31 wl_en wl_31 
+ wordline_driver 
* No parameters

.ENDS

.SUBCKT bitcell_array 
+ vdd vss bl_31 bl_30 bl_29 bl_28 bl_27 bl_26 bl_25 bl_24 bl_23 bl_22 bl_21 bl_20 bl_19 bl_18 bl_17 bl_16 bl_15 bl_14 bl_13 bl_12 bl_11 bl_10 bl_9 bl_8 bl_7 bl_6 bl_5 bl_4 bl_3 bl_2 bl_1 bl_0 br_31 br_30 br_29 br_28 br_27 br_26 br_25 br_24 br_23 br_22 br_21 br_20 br_19 br_18 br_17 br_16 br_15 br_14 br_13 br_12 br_11 br_10 br_9 br_8 br_7 br_6 br_5 br_4 br_3 br_2 br_1 br_0 wl_31 wl_30 wl_29 wl_28 wl_27 wl_26 wl_25 wl_24 wl_23 wl_22 wl_21 wl_20 wl_19 wl_18 wl_17 wl_16 wl_15 wl_14 wl_13 wl_12 wl_11 wl_10 wl_9 wl_8 wl_7 wl_6 wl_5 wl_4 wl_3 wl_2 wl_1 wl_0 vnb vpb 

xbitcell_0_0 
+ bl_0 br_0 vdd vss wl_0 vnb vpb 
+ sram_sp_cell 
* No parameters

xbitcell_0_1 
+ bl_1 br_1 vdd vss wl_0 vnb vpb 
+ sram_sp_cell 
* No parameters

xbitcell_0_2 
+ bl_2 br_2 vdd vss wl_0 vnb vpb 
+ sram_sp_cell 
* No parameters

xbitcell_0_3 
+ bl_3 br_3 vdd vss wl_0 vnb vpb 
+ sram_sp_cell 
* No parameters

xbitcell_0_4 
+ bl_4 br_4 vdd vss wl_0 vnb vpb 
+ sram_sp_cell 
* No parameters

xbitcell_0_5 
+ bl_5 br_5 vdd vss wl_0 vnb vpb 
+ sram_sp_cell 
* No parameters

xbitcell_0_6 
+ bl_6 br_6 vdd vss wl_0 vnb vpb 
+ sram_sp_cell 
* No parameters

xbitcell_0_7 
+ bl_7 br_7 vdd vss wl_0 vnb vpb 
+ sram_sp_cell 
* No parameters

xbitcell_0_8 
+ bl_8 br_8 vdd vss wl_0 vnb vpb 
+ sram_sp_cell 
* No parameters

xbitcell_0_9 
+ bl_9 br_9 vdd vss wl_0 vnb vpb 
+ sram_sp_cell 
* No parameters

xbitcell_0_10 
+ bl_10 br_10 vdd vss wl_0 vnb vpb 
+ sram_sp_cell 
* No parameters

xbitcell_0_11 
+ bl_11 br_11 vdd vss wl_0 vnb vpb 
+ sram_sp_cell 
* No parameters

xbitcell_0_12 
+ bl_12 br_12 vdd vss wl_0 vnb vpb 
+ sram_sp_cell 
* No parameters

xbitcell_0_13 
+ bl_13 br_13 vdd vss wl_0 vnb vpb 
+ sram_sp_cell 
* No parameters

xbitcell_0_14 
+ bl_14 br_14 vdd vss wl_0 vnb vpb 
+ sram_sp_cell 
* No parameters

xbitcell_0_15 
+ bl_15 br_15 vdd vss wl_0 vnb vpb 
+ sram_sp_cell 
* No parameters

xbitcell_0_16 
+ bl_16 br_16 vdd vss wl_0 vnb vpb 
+ sram_sp_cell 
* No parameters

xbitcell_0_17 
+ bl_17 br_17 vdd vss wl_0 vnb vpb 
+ sram_sp_cell 
* No parameters

xbitcell_0_18 
+ bl_18 br_18 vdd vss wl_0 vnb vpb 
+ sram_sp_cell 
* No parameters

xbitcell_0_19 
+ bl_19 br_19 vdd vss wl_0 vnb vpb 
+ sram_sp_cell 
* No parameters

xbitcell_0_20 
+ bl_20 br_20 vdd vss wl_0 vnb vpb 
+ sram_sp_cell 
* No parameters

xbitcell_0_21 
+ bl_21 br_21 vdd vss wl_0 vnb vpb 
+ sram_sp_cell 
* No parameters

xbitcell_0_22 
+ bl_22 br_22 vdd vss wl_0 vnb vpb 
+ sram_sp_cell 
* No parameters

xbitcell_0_23 
+ bl_23 br_23 vdd vss wl_0 vnb vpb 
+ sram_sp_cell 
* No parameters

xbitcell_0_24 
+ bl_24 br_24 vdd vss wl_0 vnb vpb 
+ sram_sp_cell 
* No parameters

xbitcell_0_25 
+ bl_25 br_25 vdd vss wl_0 vnb vpb 
+ sram_sp_cell 
* No parameters

xbitcell_0_26 
+ bl_26 br_26 vdd vss wl_0 vnb vpb 
+ sram_sp_cell 
* No parameters

xbitcell_0_27 
+ bl_27 br_27 vdd vss wl_0 vnb vpb 
+ sram_sp_cell 
* No parameters

xbitcell_0_28 
+ bl_28 br_28 vdd vss wl_0 vnb vpb 
+ sram_sp_cell 
* No parameters

xbitcell_0_29 
+ bl_29 br_29 vdd vss wl_0 vnb vpb 
+ sram_sp_cell 
* No parameters

xbitcell_0_30 
+ bl_30 br_30 vdd vss wl_0 vnb vpb 
+ sram_sp_cell 
* No parameters

xbitcell_0_31 
+ bl_31 br_31 vdd vss wl_0 vnb vpb 
+ sram_sp_cell 
* No parameters

xbitcell_1_0 
+ bl_0 br_0 vdd vss wl_1 vnb vpb 
+ sram_sp_cell 
* No parameters

xbitcell_1_1 
+ bl_1 br_1 vdd vss wl_1 vnb vpb 
+ sram_sp_cell 
* No parameters

xbitcell_1_2 
+ bl_2 br_2 vdd vss wl_1 vnb vpb 
+ sram_sp_cell 
* No parameters

xbitcell_1_3 
+ bl_3 br_3 vdd vss wl_1 vnb vpb 
+ sram_sp_cell 
* No parameters

xbitcell_1_4 
+ bl_4 br_4 vdd vss wl_1 vnb vpb 
+ sram_sp_cell 
* No parameters

xbitcell_1_5 
+ bl_5 br_5 vdd vss wl_1 vnb vpb 
+ sram_sp_cell 
* No parameters

xbitcell_1_6 
+ bl_6 br_6 vdd vss wl_1 vnb vpb 
+ sram_sp_cell 
* No parameters

xbitcell_1_7 
+ bl_7 br_7 vdd vss wl_1 vnb vpb 
+ sram_sp_cell 
* No parameters

xbitcell_1_8 
+ bl_8 br_8 vdd vss wl_1 vnb vpb 
+ sram_sp_cell 
* No parameters

xbitcell_1_9 
+ bl_9 br_9 vdd vss wl_1 vnb vpb 
+ sram_sp_cell 
* No parameters

xbitcell_1_10 
+ bl_10 br_10 vdd vss wl_1 vnb vpb 
+ sram_sp_cell 
* No parameters

xbitcell_1_11 
+ bl_11 br_11 vdd vss wl_1 vnb vpb 
+ sram_sp_cell 
* No parameters

xbitcell_1_12 
+ bl_12 br_12 vdd vss wl_1 vnb vpb 
+ sram_sp_cell 
* No parameters

xbitcell_1_13 
+ bl_13 br_13 vdd vss wl_1 vnb vpb 
+ sram_sp_cell 
* No parameters

xbitcell_1_14 
+ bl_14 br_14 vdd vss wl_1 vnb vpb 
+ sram_sp_cell 
* No parameters

xbitcell_1_15 
+ bl_15 br_15 vdd vss wl_1 vnb vpb 
+ sram_sp_cell 
* No parameters

xbitcell_1_16 
+ bl_16 br_16 vdd vss wl_1 vnb vpb 
+ sram_sp_cell 
* No parameters

xbitcell_1_17 
+ bl_17 br_17 vdd vss wl_1 vnb vpb 
+ sram_sp_cell 
* No parameters

xbitcell_1_18 
+ bl_18 br_18 vdd vss wl_1 vnb vpb 
+ sram_sp_cell 
* No parameters

xbitcell_1_19 
+ bl_19 br_19 vdd vss wl_1 vnb vpb 
+ sram_sp_cell 
* No parameters

xbitcell_1_20 
+ bl_20 br_20 vdd vss wl_1 vnb vpb 
+ sram_sp_cell 
* No parameters

xbitcell_1_21 
+ bl_21 br_21 vdd vss wl_1 vnb vpb 
+ sram_sp_cell 
* No parameters

xbitcell_1_22 
+ bl_22 br_22 vdd vss wl_1 vnb vpb 
+ sram_sp_cell 
* No parameters

xbitcell_1_23 
+ bl_23 br_23 vdd vss wl_1 vnb vpb 
+ sram_sp_cell 
* No parameters

xbitcell_1_24 
+ bl_24 br_24 vdd vss wl_1 vnb vpb 
+ sram_sp_cell 
* No parameters

xbitcell_1_25 
+ bl_25 br_25 vdd vss wl_1 vnb vpb 
+ sram_sp_cell 
* No parameters

xbitcell_1_26 
+ bl_26 br_26 vdd vss wl_1 vnb vpb 
+ sram_sp_cell 
* No parameters

xbitcell_1_27 
+ bl_27 br_27 vdd vss wl_1 vnb vpb 
+ sram_sp_cell 
* No parameters

xbitcell_1_28 
+ bl_28 br_28 vdd vss wl_1 vnb vpb 
+ sram_sp_cell 
* No parameters

xbitcell_1_29 
+ bl_29 br_29 vdd vss wl_1 vnb vpb 
+ sram_sp_cell 
* No parameters

xbitcell_1_30 
+ bl_30 br_30 vdd vss wl_1 vnb vpb 
+ sram_sp_cell 
* No parameters

xbitcell_1_31 
+ bl_31 br_31 vdd vss wl_1 vnb vpb 
+ sram_sp_cell 
* No parameters

xbitcell_2_0 
+ bl_0 br_0 vdd vss wl_2 vnb vpb 
+ sram_sp_cell 
* No parameters

xbitcell_2_1 
+ bl_1 br_1 vdd vss wl_2 vnb vpb 
+ sram_sp_cell 
* No parameters

xbitcell_2_2 
+ bl_2 br_2 vdd vss wl_2 vnb vpb 
+ sram_sp_cell 
* No parameters

xbitcell_2_3 
+ bl_3 br_3 vdd vss wl_2 vnb vpb 
+ sram_sp_cell 
* No parameters

xbitcell_2_4 
+ bl_4 br_4 vdd vss wl_2 vnb vpb 
+ sram_sp_cell 
* No parameters

xbitcell_2_5 
+ bl_5 br_5 vdd vss wl_2 vnb vpb 
+ sram_sp_cell 
* No parameters

xbitcell_2_6 
+ bl_6 br_6 vdd vss wl_2 vnb vpb 
+ sram_sp_cell 
* No parameters

xbitcell_2_7 
+ bl_7 br_7 vdd vss wl_2 vnb vpb 
+ sram_sp_cell 
* No parameters

xbitcell_2_8 
+ bl_8 br_8 vdd vss wl_2 vnb vpb 
+ sram_sp_cell 
* No parameters

xbitcell_2_9 
+ bl_9 br_9 vdd vss wl_2 vnb vpb 
+ sram_sp_cell 
* No parameters

xbitcell_2_10 
+ bl_10 br_10 vdd vss wl_2 vnb vpb 
+ sram_sp_cell 
* No parameters

xbitcell_2_11 
+ bl_11 br_11 vdd vss wl_2 vnb vpb 
+ sram_sp_cell 
* No parameters

xbitcell_2_12 
+ bl_12 br_12 vdd vss wl_2 vnb vpb 
+ sram_sp_cell 
* No parameters

xbitcell_2_13 
+ bl_13 br_13 vdd vss wl_2 vnb vpb 
+ sram_sp_cell 
* No parameters

xbitcell_2_14 
+ bl_14 br_14 vdd vss wl_2 vnb vpb 
+ sram_sp_cell 
* No parameters

xbitcell_2_15 
+ bl_15 br_15 vdd vss wl_2 vnb vpb 
+ sram_sp_cell 
* No parameters

xbitcell_2_16 
+ bl_16 br_16 vdd vss wl_2 vnb vpb 
+ sram_sp_cell 
* No parameters

xbitcell_2_17 
+ bl_17 br_17 vdd vss wl_2 vnb vpb 
+ sram_sp_cell 
* No parameters

xbitcell_2_18 
+ bl_18 br_18 vdd vss wl_2 vnb vpb 
+ sram_sp_cell 
* No parameters

xbitcell_2_19 
+ bl_19 br_19 vdd vss wl_2 vnb vpb 
+ sram_sp_cell 
* No parameters

xbitcell_2_20 
+ bl_20 br_20 vdd vss wl_2 vnb vpb 
+ sram_sp_cell 
* No parameters

xbitcell_2_21 
+ bl_21 br_21 vdd vss wl_2 vnb vpb 
+ sram_sp_cell 
* No parameters

xbitcell_2_22 
+ bl_22 br_22 vdd vss wl_2 vnb vpb 
+ sram_sp_cell 
* No parameters

xbitcell_2_23 
+ bl_23 br_23 vdd vss wl_2 vnb vpb 
+ sram_sp_cell 
* No parameters

xbitcell_2_24 
+ bl_24 br_24 vdd vss wl_2 vnb vpb 
+ sram_sp_cell 
* No parameters

xbitcell_2_25 
+ bl_25 br_25 vdd vss wl_2 vnb vpb 
+ sram_sp_cell 
* No parameters

xbitcell_2_26 
+ bl_26 br_26 vdd vss wl_2 vnb vpb 
+ sram_sp_cell 
* No parameters

xbitcell_2_27 
+ bl_27 br_27 vdd vss wl_2 vnb vpb 
+ sram_sp_cell 
* No parameters

xbitcell_2_28 
+ bl_28 br_28 vdd vss wl_2 vnb vpb 
+ sram_sp_cell 
* No parameters

xbitcell_2_29 
+ bl_29 br_29 vdd vss wl_2 vnb vpb 
+ sram_sp_cell 
* No parameters

xbitcell_2_30 
+ bl_30 br_30 vdd vss wl_2 vnb vpb 
+ sram_sp_cell 
* No parameters

xbitcell_2_31 
+ bl_31 br_31 vdd vss wl_2 vnb vpb 
+ sram_sp_cell 
* No parameters

xbitcell_3_0 
+ bl_0 br_0 vdd vss wl_3 vnb vpb 
+ sram_sp_cell 
* No parameters

xbitcell_3_1 
+ bl_1 br_1 vdd vss wl_3 vnb vpb 
+ sram_sp_cell 
* No parameters

xbitcell_3_2 
+ bl_2 br_2 vdd vss wl_3 vnb vpb 
+ sram_sp_cell 
* No parameters

xbitcell_3_3 
+ bl_3 br_3 vdd vss wl_3 vnb vpb 
+ sram_sp_cell 
* No parameters

xbitcell_3_4 
+ bl_4 br_4 vdd vss wl_3 vnb vpb 
+ sram_sp_cell 
* No parameters

xbitcell_3_5 
+ bl_5 br_5 vdd vss wl_3 vnb vpb 
+ sram_sp_cell 
* No parameters

xbitcell_3_6 
+ bl_6 br_6 vdd vss wl_3 vnb vpb 
+ sram_sp_cell 
* No parameters

xbitcell_3_7 
+ bl_7 br_7 vdd vss wl_3 vnb vpb 
+ sram_sp_cell 
* No parameters

xbitcell_3_8 
+ bl_8 br_8 vdd vss wl_3 vnb vpb 
+ sram_sp_cell 
* No parameters

xbitcell_3_9 
+ bl_9 br_9 vdd vss wl_3 vnb vpb 
+ sram_sp_cell 
* No parameters

xbitcell_3_10 
+ bl_10 br_10 vdd vss wl_3 vnb vpb 
+ sram_sp_cell 
* No parameters

xbitcell_3_11 
+ bl_11 br_11 vdd vss wl_3 vnb vpb 
+ sram_sp_cell 
* No parameters

xbitcell_3_12 
+ bl_12 br_12 vdd vss wl_3 vnb vpb 
+ sram_sp_cell 
* No parameters

xbitcell_3_13 
+ bl_13 br_13 vdd vss wl_3 vnb vpb 
+ sram_sp_cell 
* No parameters

xbitcell_3_14 
+ bl_14 br_14 vdd vss wl_3 vnb vpb 
+ sram_sp_cell 
* No parameters

xbitcell_3_15 
+ bl_15 br_15 vdd vss wl_3 vnb vpb 
+ sram_sp_cell 
* No parameters

xbitcell_3_16 
+ bl_16 br_16 vdd vss wl_3 vnb vpb 
+ sram_sp_cell 
* No parameters

xbitcell_3_17 
+ bl_17 br_17 vdd vss wl_3 vnb vpb 
+ sram_sp_cell 
* No parameters

xbitcell_3_18 
+ bl_18 br_18 vdd vss wl_3 vnb vpb 
+ sram_sp_cell 
* No parameters

xbitcell_3_19 
+ bl_19 br_19 vdd vss wl_3 vnb vpb 
+ sram_sp_cell 
* No parameters

xbitcell_3_20 
+ bl_20 br_20 vdd vss wl_3 vnb vpb 
+ sram_sp_cell 
* No parameters

xbitcell_3_21 
+ bl_21 br_21 vdd vss wl_3 vnb vpb 
+ sram_sp_cell 
* No parameters

xbitcell_3_22 
+ bl_22 br_22 vdd vss wl_3 vnb vpb 
+ sram_sp_cell 
* No parameters

xbitcell_3_23 
+ bl_23 br_23 vdd vss wl_3 vnb vpb 
+ sram_sp_cell 
* No parameters

xbitcell_3_24 
+ bl_24 br_24 vdd vss wl_3 vnb vpb 
+ sram_sp_cell 
* No parameters

xbitcell_3_25 
+ bl_25 br_25 vdd vss wl_3 vnb vpb 
+ sram_sp_cell 
* No parameters

xbitcell_3_26 
+ bl_26 br_26 vdd vss wl_3 vnb vpb 
+ sram_sp_cell 
* No parameters

xbitcell_3_27 
+ bl_27 br_27 vdd vss wl_3 vnb vpb 
+ sram_sp_cell 
* No parameters

xbitcell_3_28 
+ bl_28 br_28 vdd vss wl_3 vnb vpb 
+ sram_sp_cell 
* No parameters

xbitcell_3_29 
+ bl_29 br_29 vdd vss wl_3 vnb vpb 
+ sram_sp_cell 
* No parameters

xbitcell_3_30 
+ bl_30 br_30 vdd vss wl_3 vnb vpb 
+ sram_sp_cell 
* No parameters

xbitcell_3_31 
+ bl_31 br_31 vdd vss wl_3 vnb vpb 
+ sram_sp_cell 
* No parameters

xbitcell_4_0 
+ bl_0 br_0 vdd vss wl_4 vnb vpb 
+ sram_sp_cell 
* No parameters

xbitcell_4_1 
+ bl_1 br_1 vdd vss wl_4 vnb vpb 
+ sram_sp_cell 
* No parameters

xbitcell_4_2 
+ bl_2 br_2 vdd vss wl_4 vnb vpb 
+ sram_sp_cell 
* No parameters

xbitcell_4_3 
+ bl_3 br_3 vdd vss wl_4 vnb vpb 
+ sram_sp_cell 
* No parameters

xbitcell_4_4 
+ bl_4 br_4 vdd vss wl_4 vnb vpb 
+ sram_sp_cell 
* No parameters

xbitcell_4_5 
+ bl_5 br_5 vdd vss wl_4 vnb vpb 
+ sram_sp_cell 
* No parameters

xbitcell_4_6 
+ bl_6 br_6 vdd vss wl_4 vnb vpb 
+ sram_sp_cell 
* No parameters

xbitcell_4_7 
+ bl_7 br_7 vdd vss wl_4 vnb vpb 
+ sram_sp_cell 
* No parameters

xbitcell_4_8 
+ bl_8 br_8 vdd vss wl_4 vnb vpb 
+ sram_sp_cell 
* No parameters

xbitcell_4_9 
+ bl_9 br_9 vdd vss wl_4 vnb vpb 
+ sram_sp_cell 
* No parameters

xbitcell_4_10 
+ bl_10 br_10 vdd vss wl_4 vnb vpb 
+ sram_sp_cell 
* No parameters

xbitcell_4_11 
+ bl_11 br_11 vdd vss wl_4 vnb vpb 
+ sram_sp_cell 
* No parameters

xbitcell_4_12 
+ bl_12 br_12 vdd vss wl_4 vnb vpb 
+ sram_sp_cell 
* No parameters

xbitcell_4_13 
+ bl_13 br_13 vdd vss wl_4 vnb vpb 
+ sram_sp_cell 
* No parameters

xbitcell_4_14 
+ bl_14 br_14 vdd vss wl_4 vnb vpb 
+ sram_sp_cell 
* No parameters

xbitcell_4_15 
+ bl_15 br_15 vdd vss wl_4 vnb vpb 
+ sram_sp_cell 
* No parameters

xbitcell_4_16 
+ bl_16 br_16 vdd vss wl_4 vnb vpb 
+ sram_sp_cell 
* No parameters

xbitcell_4_17 
+ bl_17 br_17 vdd vss wl_4 vnb vpb 
+ sram_sp_cell 
* No parameters

xbitcell_4_18 
+ bl_18 br_18 vdd vss wl_4 vnb vpb 
+ sram_sp_cell 
* No parameters

xbitcell_4_19 
+ bl_19 br_19 vdd vss wl_4 vnb vpb 
+ sram_sp_cell 
* No parameters

xbitcell_4_20 
+ bl_20 br_20 vdd vss wl_4 vnb vpb 
+ sram_sp_cell 
* No parameters

xbitcell_4_21 
+ bl_21 br_21 vdd vss wl_4 vnb vpb 
+ sram_sp_cell 
* No parameters

xbitcell_4_22 
+ bl_22 br_22 vdd vss wl_4 vnb vpb 
+ sram_sp_cell 
* No parameters

xbitcell_4_23 
+ bl_23 br_23 vdd vss wl_4 vnb vpb 
+ sram_sp_cell 
* No parameters

xbitcell_4_24 
+ bl_24 br_24 vdd vss wl_4 vnb vpb 
+ sram_sp_cell 
* No parameters

xbitcell_4_25 
+ bl_25 br_25 vdd vss wl_4 vnb vpb 
+ sram_sp_cell 
* No parameters

xbitcell_4_26 
+ bl_26 br_26 vdd vss wl_4 vnb vpb 
+ sram_sp_cell 
* No parameters

xbitcell_4_27 
+ bl_27 br_27 vdd vss wl_4 vnb vpb 
+ sram_sp_cell 
* No parameters

xbitcell_4_28 
+ bl_28 br_28 vdd vss wl_4 vnb vpb 
+ sram_sp_cell 
* No parameters

xbitcell_4_29 
+ bl_29 br_29 vdd vss wl_4 vnb vpb 
+ sram_sp_cell 
* No parameters

xbitcell_4_30 
+ bl_30 br_30 vdd vss wl_4 vnb vpb 
+ sram_sp_cell 
* No parameters

xbitcell_4_31 
+ bl_31 br_31 vdd vss wl_4 vnb vpb 
+ sram_sp_cell 
* No parameters

xbitcell_5_0 
+ bl_0 br_0 vdd vss wl_5 vnb vpb 
+ sram_sp_cell 
* No parameters

xbitcell_5_1 
+ bl_1 br_1 vdd vss wl_5 vnb vpb 
+ sram_sp_cell 
* No parameters

xbitcell_5_2 
+ bl_2 br_2 vdd vss wl_5 vnb vpb 
+ sram_sp_cell 
* No parameters

xbitcell_5_3 
+ bl_3 br_3 vdd vss wl_5 vnb vpb 
+ sram_sp_cell 
* No parameters

xbitcell_5_4 
+ bl_4 br_4 vdd vss wl_5 vnb vpb 
+ sram_sp_cell 
* No parameters

xbitcell_5_5 
+ bl_5 br_5 vdd vss wl_5 vnb vpb 
+ sram_sp_cell 
* No parameters

xbitcell_5_6 
+ bl_6 br_6 vdd vss wl_5 vnb vpb 
+ sram_sp_cell 
* No parameters

xbitcell_5_7 
+ bl_7 br_7 vdd vss wl_5 vnb vpb 
+ sram_sp_cell 
* No parameters

xbitcell_5_8 
+ bl_8 br_8 vdd vss wl_5 vnb vpb 
+ sram_sp_cell 
* No parameters

xbitcell_5_9 
+ bl_9 br_9 vdd vss wl_5 vnb vpb 
+ sram_sp_cell 
* No parameters

xbitcell_5_10 
+ bl_10 br_10 vdd vss wl_5 vnb vpb 
+ sram_sp_cell 
* No parameters

xbitcell_5_11 
+ bl_11 br_11 vdd vss wl_5 vnb vpb 
+ sram_sp_cell 
* No parameters

xbitcell_5_12 